<?xml version="1.0" encoding="UTF-8"?>
<configuration xmlns:xsi="http://www.w3.org/2001/XMLSchema-instance" xsi:noNamespaceSchemaLocation="http://sumo.dlr.de/xsd/sumoConfiguration.xsd">
    <input>
        <net-file value="/Users/pohsuanlai/Documents/rqe/.venv/lib/python3.11/site-packages/sumo_rl/nets/single-intersection/single-intersection.net.xml"/>
        <route-files value="/Users/pohsuanlai/Documents/rqe/.venv/lib/python3.11/site-packages/sumo_rl/nets/single-intersection/single-intersection.rou.xml"/>
    </input>
    <time>
        <begin value="0"/>
        <end value="1000"/>
    </time>
</configuration>
